ieee14_full_out.txt
ANDES 1.9.3
Copyright (C) 2015-2022 Hantao Cui

ANDES comes with ABSOLUTELY NO WARRANTY
Case file: C:\Users\Roger\Documents\ASME Paper\.venv\Lib\site-packages\andes\cases\ieee14\ieee14_full.xlsx
Report time: 03/14/2025 11:00:06 PM

Power flow converged in 4 iterations.
Flat-start: No

Statistics:
Buses                             14
Generators                         6
Committed Gens                     6
Loads                             11
Shunts                             2
Lines                             20
Transformers                       4
Areas                              2

EXTENDED SUMMARY:
                              P (pu)            Q (pu)

Generation                    2.2701           0.52438
Load                           2.237             0.954

BUS DATA:
                            Bus Name            Vm(pu)          Va(rad.)

1                               BUS1              1.03         6.243e-20
2                               BUS2              1.03         -0.035226
3                               BUS3              1.01         -0.069789
4                               BUS4                 1         -0.084215
5                               BUS5              1.01         -0.073275
6                               BUS6              1.03          -0.12032
7                               BUS7            1.0174           -0.0921
8                               BUS8              1.03         -0.033421
9                               BUS9            1.0168          -0.13343
10                             BUS10            1.0114           -0.1365
11                             BUS11             1.017          -0.13089
12                             BUS12             1.017          -0.13814
13                             BUS13            1.0137          -0.14233
14                             BUS14             1.013          -0.17285

LINE DATA:
                           Line Name     Fr. Bus (idx)      To Bus (idx)       P From (pu)       Q From (pu)         P To (pu)         Q To (pu)

Line_1                        Line_1                 1                 2           0.57358          -0.20475            -0.567           0.16883
Line_2                        Line_2                 1                 5           0.34651        -0.0053317          -0.34037          -0.02053
Line_3                        Line_3                 2                 3           0.19598          0.037442          -0.19412         -0.075162
Line_4                        Line_4                 2                 4           0.31221          0.061326          -0.30653         -0.079114
Line_5                        Line_5                 2                 5            0.2418          0.025033          -0.23856         -0.051144
Line_6                        Line_6                 3                 4          0.094119          0.016264         -0.093503          -0.02762
Line_7                        Line_7                 4                 5          -0.30668          -0.13969           0.30819           0.14448
Line_8                        Line_8                 6                11          0.071672          0.033413         -0.071112         -0.032241
Line_9                        Line_9                 6                12          0.079953          0.014498         -0.079188         -0.012906
Line_10                      Line_10                 6                13           0.19311          0.032869          -0.19072         -0.028157
Line_11                      Line_11                 7                 9           0.38849          0.013232          -0.38849         0.0028283
Line_12                      Line_12                 9                10          0.054159           0.04444         -0.054008         -0.044039
Line_13                      Line_13                 9                14           0.12955         -0.043828          -0.12725          0.048719
Line_14                      Line_14                10                11         -0.035992         -0.013961          0.036112          0.014241
Line_15                      Line_15                12                13          0.018188        -0.0030937         -0.018115         0.0031595
Line_16                      Line_16                13                14          0.073838         -0.033002          -0.07275          0.035218
Line_17                      Line_17                 4                 7          0.038486         -0.067556         -0.038486          0.068812
Line_18                      Line_18                 4                 9          0.090223         -0.022222         -0.090223          0.026993
Line_19                      Line_19                 6                 5          -0.19474           0.10012           0.19474         -0.088802
Line_20                      Line_20                 8                 7              0.35           0.10404             -0.35         -0.082043

OTHER ALGEBRAIC VARIABLES:
                                    

q PV 2                       0.41963
q PV 3                        0.1911
q PV 4                        0.2559
q PV 5                       0.10404
q PV 100                    -0.23621
q Slack 1                   -0.21008
p Slack 1                    0.92009

